<?xml version="1.0" encoding="UTF-8"?>
<!DOCTYPE network SYSTEM "http://www.matsim.org/files/dtd/network_v2.dtd">
<network>

<!-- ====================================================================== -->

	<nodes>

<node id="1116615063" x="253686.272884245" y="5907113.73335309"> </node>
<node id="2262731758" x="252706.615582748" y="5909853.52011532"> </node>
<node id="258069824" x="263053.567175033" y="5890681.72326057"> </node>
<node id="258070680" x="252686.903028203" y="5910081.44590887"> </node>
<node id="258070684" x="252789.435328318" y="5909558.38498311"> </node>
<node id="258070689" x="253549.267356948" y="5907412.18648968"> </node>
<node id="259608544" x="262323.854595017" y="5891200.99387727"> </node>
<node id="273863415" x="262874.024322599" y="5890706.8405726"> </node>
<node id="273863434" x="262898.346488134" y="5890631.15118096"> </node>
<node id="31941626" x="263018.384973189" y="5890706.74413097"> </node>
<node id="31946979" x="261890.36240543" y="5891714.41260232"> </node>
<node id="3411854916" x="253155.914440647" y="5908533.02934623"> </node>
<node id="3411854927" x="253151.657063221" y="5908547.28805971"> </node>
<node id="389380195" x="254498.089478378" y="5905517.44268904"> </node>
<node id="389380196" x="254830.417876523" y="5905003.05242534"> </node>
<node id="389380197" x="255164.089720594" y="5904483.40422584"> </node>
<node id="389380200" x="255564.637486815" y="5903304.89701766"> </node>
<node id="389380202" x="255513.604838169" y="5902611.66959785"> </node>
<node id="389380212" x="256884.562870755" y="5899321.70659628"> </node>
<node id="389380216" x="257846.317601668" y="5897759.61040631"> </node>
<node id="389410016" x="253932.958584171" y="5906468.85022484"> </node>
<node id="544225500" x="255372.66489686" y="5903998.66146597"> </node>
<node id="656320700" x="252707.2778762" y="5909836.6023693"> </node>
<node id="688337644" x="260701.798642711" y="5894402.26616495"> </node>
<node id="688337648" x="260253.487585306" y="5895092.19134003"> </node>
<node id="688337657" x="259637.240514146" y="5895942.84287726"> </node>
<node id="688337667" x="258835.379658541" y="5896398.33623047"> </node>
<node id="688337673" x="258397.146884425" y="5896727.23728606"> </node>
<node id="688337680" x="258113.546945152" y="5897191.81692135"> </node>
<node id="688344900" x="259215.769231819" y="5896212.54281581"> </node>
<node id="688347880" x="257583.74087593" y="5898212.11777542"> </node>
<node id="688348952" x="255229.057028962" y="5901403.95218596"> </node>
<node id="688353482" x="255921.291668393" y="5899990.38732076"> </node>
<node id="688353484" x="256434.83464871" y="5899643.65062332"> </node>
<node id="725876356" x="253922.259482323" y="5906495.68325925"> </node>
<node id="726937598" x="255298.602453155" y="5901841.4460939"> </node>
<node id="726940228" x="255416.569605714" y="5900580.47597643"> </node>
<node id="726940255" x="255345.473858714" y="5900738.27187084"> </node>
<node id="727178921" x="261221.685980419" y="5893007.89070411"> </node>
<node id="727178936" x="261388.504120491" y="5893042.08226584"> </node>
<node id="727179095" x="261482.880879477" y="5893111.60563318"> </node>
<node id="727179121" x="261501.071292721" y="5893078.7692256"> </node>
<node id="727179124" x="261474.114060271" y="5893061.60447298"> </node>
<node id="727181396" x="261173.391569736" y="5892985.37920514"> </node>
<node id="728114188" x="262486.604886304" y="5891034.98403618"> </node>
<node id="728114529" x="262402.873728984" y="5891118.4393493"> </node>
<node id="728114542" x="262410.901985968" y="5891129.03810771"> </node>
<node id="728136458" x="263018.858193654" y="5890670.58657898"> </node>
<node id="728137132" x="262735.768301873" y="5890859.28628436"> </node>
<node id="768258919" x="257254.702363932" y="5898875.2248235"> </node>
<node id="811214019" x="261511.331687318" y="5892372.70424656"> </node>
    
 	</nodes>

<!-- ====================================================================== -->

	<links capperiod="01:00:00" effectivecellsize="7.5" effectivelanewidth="3.75">

<link id="12426" from="273863434" to="273863415" length="79.501268818304" freespeed="13.8888888888889" capacity="600" permlanes="1" oneway="1" modes="car" > </link>
<link id="168748-168749-168750-168751" from="259608544" to="728114542" length="113.022785457395" freespeed="27.7777777777778" capacity="600" permlanes="1" oneway="1" modes="car" > </link>
<link id="170373-170374-170375-170376" from="728114529" to="728114188" length="118.30047388924" freespeed="27.7777777777778" capacity="1000" permlanes="1" oneway="1" modes="car" > </link>
<link id="171827-171829-171831-171833-171835-171837-171839-171841" from="728114188" to="728137132" length="306.044032106785" freespeed="27.7777777777778" capacity="1000" permlanes="1" oneway="1" modes="car" > </link>
<link id="171843-171845-171847-171849-171851-171853-171855" from="728137132" to="31941626" length="321.268033764987" freespeed="27.7777777777778" capacity="1000" permlanes="1" oneway="1" modes="car" > </link>
<link id="171857-171859" from="31941626" to="258069824" length="43.1756090832528" freespeed="27.7777777777778" capacity="1000" permlanes="1" oneway="1" modes="car" > </link>
<link id="172076" from="725876356" to="389410016" length="28.8874110274561" freespeed="27.7777777777778" capacity="4000" permlanes="2" oneway="1" modes="car" > </link>
<link id="176065-176066-176067-176068" from="727179124" to="727178936" length="87.9240037373873" freespeed="13.8888888888889" capacity="600" permlanes="1" oneway="1" modes="car" > </link>
<link id="176069-176070-176071" from="727179121" to="727179124" length="32.5091139391673" freespeed="13.8888888888889" capacity="600" permlanes="1" oneway="1" modes="car" > </link>
<link id="176117-176115-176113-176111" from="727178936" to="727178921" length="170.377843292571" freespeed="13.8888888888889" capacity="600" permlanes="1" oneway="1" modes="car" > </link>
<link id="115834-115835-115836-115837-115838" from="688344900" to="688337657" length="502.052151755285" freespeed="30.5555555555556" capacity="4000" permlanes="2" oneway="1" modes="car" > </link>
<link id="115839-115840-115841-115842-115843" from="688337657" to="688337648" length="1053.20521642521" freespeed="30.5555555555556" capacity="4000" permlanes="2" oneway="1" modes="car" > </link>
<link id="115844-115845" from="688337648" to="688337644" length="822.790643779412" freespeed="30.5555555555556" capacity="4000" permlanes="2" oneway="1" modes="car" > </link>
<link id="115846-115847-115848-115849-115850" from="688337644" to="727179095" length="1509.52876135805" freespeed="30.5555555555556" capacity="4000" permlanes="2" oneway="1" modes="car" > </link>
<link id="115851" from="727179095" to="727179121" length="37.5382577732005" freespeed="30.5555555555556" capacity="4000" permlanes="2" oneway="1" modes="car" > </link>
<link id="116845-116846-116869-116870-116871-116872-116873-116874" from="688348952" to="726940255" length="680.784044147239" freespeed="30.5555555555556" capacity="4000" permlanes="2" oneway="1" modes="car" > </link>
<link id="116875-116876-116877-116878" from="726940255" to="726940228" length="173.153030238627" freespeed="30.5555555555556" capacity="4000" permlanes="2" oneway="1" modes="car" > </link>
<link id="116879-116880-116881-116882-116883-116884-116885-116886-116887-116888-116889-116890-124328-117312-117313" from="726940228" to="688353482" length="783.474334884594" freespeed="30.5555555555556" capacity="4000" permlanes="2" oneway="1" modes="car" > </link>
<link id="117314-117315" from="688353482" to="688353484" length="619.639313128555" freespeed="30.5555555555556" capacity="4000" permlanes="2" oneway="1" modes="car" > </link>
<link id="117316-117317-117318" from="688353484" to="389380212" length="553.405303285146" freespeed="30.5555555555556" capacity="4000" permlanes="2" oneway="1" modes="car" > </link>
<link id="117319-117320-117321-117322-117323" from="389380212" to="768258919" length="582.373235197738" freespeed="30.5555555555556" capacity="4000" permlanes="2" oneway="1" modes="car" > </link>
<link id="117324-117325-117326-117327-117328" from="768258919" to="688347880" length="740.761143725037" freespeed="30.5555555555556" capacity="4000" permlanes="2" oneway="1" modes="car" > </link>
<link id="117329-117330" from="688347880" to="389380216" length="523.207143247383" freespeed="30.5555555555556" capacity="4000" permlanes="2" oneway="1" modes="car" > </link>
<link id="117331-117332-117333-117334" from="389380216" to="688337680" length="627.921529610726" freespeed="30.5555555555556" capacity="4000" permlanes="2" oneway="1" modes="car" > </link>
<link id="117335-117336-117337-117338" from="688337680" to="688337673" length="547.404948316448" freespeed="30.5555555555556" capacity="4000" permlanes="2" oneway="1" modes="car" > </link>
<link id="117339-117340-117341" from="688337673" to="688337667" length="550.760485980203" freespeed="30.5555555555556" capacity="4000" permlanes="2" oneway="1" modes="car" > </link>
<link id="117342-117343-115827" from="688337667" to="688344900" length="423.341054249275" freespeed="30.5555555555556" capacity="4000" permlanes="2" oneway="1" modes="car" > </link>
<link id="117441-117442-117443-117444-117445-117446-117447-117448-117449-117450-117451-117452-117453-117454-117455-117456-117457-117458" from="726937598" to="688348952" length="444.198628129104" freespeed="27.7777777777778" capacity="4000" permlanes="2" oneway="1" modes="car" > </link>
<link id="12393-12391" from="728136458" to="273863434" length="126.80017556845" freespeed="27.7777777777778" capacity="600" permlanes="1" oneway="1" modes="car" > </link>
<link id="12395" from="258069824" to="728136458" length="36.4518732731185" freespeed="27.7777777777778" capacity="600" permlanes="1" oneway="1" modes="car" > </link>
<link id="179512" from="2262731758" to="656320700" length="16.9307047457623" freespeed="27.7777777777778" capacity="4000" permlanes="2" oneway="1" modes="car" > </link>
<link id="179513-179514-179515-179516-179517-179518-179519-179520-179521" from="656320700" to="258070684" length="292.419764741486" freespeed="27.7777777777778" capacity="4000" permlanes="2" oneway="1" modes="car" > </link>
<link id="179522-179523-179524-179525-179526-179527-179528-179529-179530-179531" from="258070684" to="3411854927" length="1080.46006569019" freespeed="27.7777777777778" capacity="4000" permlanes="2" oneway="1" modes="car" > </link>
<link id="179532" from="3411854927" to="3411854916" length="14.8807315902885" freespeed="27.7777777777778" capacity="4000" permlanes="2" oneway="1" modes="car" > </link>
<link id="179533-179534-179535-179536-179537-179538" from="3411854916" to="258070689" length="1189.73114011095" freespeed="27.7777777777778" capacity="4000" permlanes="2" oneway="1" modes="car" > </link>
<link id="179539" from="258070689" to="1116615063" length="328.39730395913" freespeed="27.7777777777778" capacity="4000" permlanes="2" oneway="1" modes="car" > </link>
<link id="179540-179541-179542-179543-179544-179545-179546-179547-179548" from="1116615063" to="725876356" length="662.372728992313" freespeed="27.7777777777778" capacity="4000" permlanes="2" oneway="1" modes="car" > </link>
<link id="187802-187803-187804" from="727178921" to="727181396" length="53.4492113267236" freespeed="13.8888888888889" capacity="600" permlanes="1" oneway="1" modes="car" > </link>
<link id="195188-195189-179510-179511" from="258070680" to="2262731758" length="229.079019926023" freespeed="27.7777777777778" capacity="4000" permlanes="2" oneway="1" modes="car" > </link>
<link id="210162-210163" from="389380202" to="726937598" length="799.774766453733" freespeed="30.5555555555556" capacity="4000" permlanes="2" oneway="1" modes="car" > </link>
<link id="36951" from="728114542" to="728114529" length="13.2961118358444" freespeed="22.2222222222222" capacity="1500" permlanes="1" oneway="1" modes="car" > </link>
<link id="83479-83480-83481-83482" from="389410016" to="389380195" length="1108.31182218256" freespeed="30.5555555555556" capacity="4000" permlanes="2" oneway="1" modes="car" > </link>
<link id="83483" from="389380195" to="389380196" length="612.404692674484" freespeed="30.5555555555556" capacity="4000" permlanes="2" oneway="1" modes="car" > </link>
<link id="83484" from="389380196" to="389380197" length="617.552548991429" freespeed="30.5555555555556" capacity="4000" permlanes="2" oneway="1" modes="car" > </link>
<link id="83485-83486-83487" from="389380197" to="544225500" length="530.024128516913" freespeed="30.5555555555556" capacity="4000" permlanes="2" oneway="1" modes="car" > </link>
<link id="83488-83489" from="544225500" to="389380200" length="719.838568885763" freespeed="30.5555555555556" capacity="4000" permlanes="2" oneway="1" modes="car" > </link>
<link id="83490-210164-210159-210160-210161" from="389380200" to="389380202" length="703.955317466191" freespeed="30.5555555555556" capacity="4000" permlanes="2" oneway="1" modes="car" > </link>
<link id="88298-88300-88302-88304-88306" from="727181396" to="811214019" length="700.09719571474" freespeed="27.7777777777778" capacity="600" permlanes="1" oneway="1" modes="car" > </link>
<link id="88308-88310-88312-88314-88316" from="811214019" to="31946979" length="760.357648698836" freespeed="27.7777777777778" capacity="600" permlanes="1" oneway="1" modes="car" > </link>
<link id="88318-88320-88322-88324-88326-88328" from="31946979" to="259608544" length="672.963201885068" freespeed="27.7777777777778" capacity="600" permlanes="1" oneway="1" modes="car" > </link>


    </links>

<!-- ====================================================================== -->

</network>
