<?xml version="1.0" encoding="utf-8"?>
<!DOCTYPE population SYSTEM "http://www.matsim.org/files/dtd/population_v6.dtd">

<population>
<!-- ====================================================================== -->
	<person id="0">
		<attributes>
			<attribute name="Archetype" class="java.lang.String" >Dependent.Evacuator</attribute>
			<attribute name="BDIAgentType" class="java.lang.String" >io.github.agentsoz.ees.agents.archetype.DependentEvacuator</attribute>
			<attribute name="EvacLocationPreference" class="java.lang.String" >Elphinstone,262886.1854,5890668.996</attribute>
			<attribute name="Geographical.Coordinate" class="java.lang.String" >[144.224, -36.9246]</attribute>
			<attribute name="HasDependents" class="java.lang.String" >False</attribute>
			<attribute name="ImpactFromFireDangerIndexRating" class="java.lang.String" >0</attribute>
			<attribute name="ImpactFromImmersionInSmoke" class="java.lang.String" >0</attribute>
			<attribute name="ImpactFromMessageAdvice" class="java.lang.String" >0</attribute>
			<attribute name="ImpactFromMessageEmergencyWarning" class="java.lang.String" >0</attribute>
			<attribute name="ImpactFromMessageEvacuateNow" class="java.lang.String" >1</attribute>
			<attribute name="ImpactFromMessageRespondersAttending" class="java.lang.String" >0</attribute>
			<attribute name="ImpactFromMessageWatchAndAct" class="java.lang.String" >0</attribute>
			<attribute name="ImpactFromSocialMessage" class="java.lang.String" >0</attribute>
			<attribute name="ImpactFromVisibleEmbers" class="java.lang.String" >0</attribute>
			<attribute name="ImpactFromVisibleFire" class="java.lang.String" >0</attribute>
			<attribute name="ImpactFromVisibleResponders" class="java.lang.String" >0</attribute>
			<attribute name="ImpactFromVisibleSmoke" class="java.lang.String" >0</attribute>
			<attribute name="InvacLocationPreference" class="java.lang.String" >Elphinstone,262886.1854,5890668.996</attribute>
			<attribute name="LagTimeInMinsForFinalResponse" class="java.lang.String" >1</attribute>
			<attribute name="LagTimeInMinsForInitialResponse" class="java.lang.String" >1</attribute>
			<attribute name="PrimaryFamilyType" class="java.lang.String" >LONE_PERSON</attribute>
			<attribute name="ResponseThresholdFinal" class="java.lang.String" >0</attribute>
			<attribute name="ResponseThresholdInitial" class="java.lang.String" >0</attribute>
			<attribute name="SA1_7DIGCODE" class="java.lang.String" >2102716</attribute>
			<attribute name="SA2_MAINCODE" class="java.lang.String" >202021027</attribute>
			<attribute name="WillGoHomeAfterVisitingDependents" class="java.lang.String" >False</attribute>
			<attribute name="WillGoHomeBeforeLeaving" class="java.lang.String" >False</attribute>
			<attribute name="WillStay" class="java.lang.String" >False</attribute>
		</attributes>
		<plan selected="yes">
			<activity type="home" x="252696.7593" y="5909967.482999999" end_time="15:00:00" />
			<leg mode="car">
			</leg>
			<activity type="work" x="262886.1854" y="5890668.996" />
		</plan>
	</person>

<!-- ====================================================================== -->
	<person id="1">
		<attributes>
			<attribute name="Archetype" class="java.lang.String" >Dependent.Evacuator</attribute>
			<attribute name="BDIAgentType" class="java.lang.String" >io.github.agentsoz.ees.agents.archetype.DependentEvacuator</attribute>
			<attribute name="EvacLocationPreference" class="java.lang.String" >Elphinstone,262886.1854,5890668.996</attribute>
			<attribute name="Geographical.Coordinate" class="java.lang.String" >[144.224, -36.9246]</attribute>
			<attribute name="HasDependents" class="java.lang.String" >False</attribute>
			<attribute name="ImpactFromFireDangerIndexRating" class="java.lang.String" >0</attribute>
			<attribute name="ImpactFromImmersionInSmoke" class="java.lang.String" >0</attribute>
			<attribute name="ImpactFromMessageAdvice" class="java.lang.String" >0</attribute>
			<attribute name="ImpactFromMessageEmergencyWarning" class="java.lang.String" >0</attribute>
			<attribute name="ImpactFromMessageEvacuateNow" class="java.lang.String" >1</attribute>
			<attribute name="ImpactFromMessageRespondersAttending" class="java.lang.String" >0</attribute>
			<attribute name="ImpactFromMessageWatchAndAct" class="java.lang.String" >0</attribute>
			<attribute name="ImpactFromSocialMessage" class="java.lang.String" >0</attribute>
			<attribute name="ImpactFromVisibleEmbers" class="java.lang.String" >0</attribute>
			<attribute name="ImpactFromVisibleFire" class="java.lang.String" >0</attribute>
			<attribute name="ImpactFromVisibleResponders" class="java.lang.String" >0</attribute>
			<attribute name="ImpactFromVisibleSmoke" class="java.lang.String" >0</attribute>
			<attribute name="InvacLocationPreference" class="java.lang.String" >Elphinstone,262886.1854,5890668.996</attribute>
			<attribute name="LagTimeInMinsForFinalResponse" class="java.lang.String" >1</attribute>
			<attribute name="LagTimeInMinsForInitialResponse" class="java.lang.String" >1</attribute>
			<attribute name="PrimaryFamilyType" class="java.lang.String" >LONE_PERSON</attribute>
			<attribute name="ResponseThresholdFinal" class="java.lang.String" >0</attribute>
			<attribute name="ResponseThresholdInitial" class="java.lang.String" >0</attribute>
			<attribute name="SA1_7DIGCODE" class="java.lang.String" >2102716</attribute>
			<attribute name="SA2_MAINCODE" class="java.lang.String" >202021027</attribute>
			<attribute name="WillGoHomeAfterVisitingDependents" class="java.lang.String" >False</attribute>
			<attribute name="WillGoHomeBeforeLeaving" class="java.lang.String" >False</attribute>
			<attribute name="WillStay" class="java.lang.String" >False</attribute>
		</attributes>
		<plan selected="yes">
			<activity type="home" x="252696.7593" y="5909967.482999999" end_time="15:00:00" />
			<leg mode="car">
			</leg>
			<activity type="work" x="262886.1854" y="5890668.996" />
		</plan>
	</person>

<!-- ====================================================================== -->
	<person id="2">
		<attributes>
			<attribute name="Archetype" class="java.lang.String" >Dependent.Evacuator</attribute>
			<attribute name="BDIAgentType" class="java.lang.String" >io.github.agentsoz.ees.agents.archetype.DependentEvacuator</attribute>
			<attribute name="EvacLocationPreference" class="java.lang.String" >Elphinstone,262886.1854,5890668.996</attribute>
			<attribute name="Geographical.Coordinate" class="java.lang.String" >[144.224, -36.9246]</attribute>
			<attribute name="HasDependents" class="java.lang.String" >False</attribute>
			<attribute name="ImpactFromFireDangerIndexRating" class="java.lang.String" >0</attribute>
			<attribute name="ImpactFromImmersionInSmoke" class="java.lang.String" >0</attribute>
			<attribute name="ImpactFromMessageAdvice" class="java.lang.String" >0</attribute>
			<attribute name="ImpactFromMessageEmergencyWarning" class="java.lang.String" >0</attribute>
			<attribute name="ImpactFromMessageEvacuateNow" class="java.lang.String" >1</attribute>
			<attribute name="ImpactFromMessageRespondersAttending" class="java.lang.String" >0</attribute>
			<attribute name="ImpactFromMessageWatchAndAct" class="java.lang.String" >0</attribute>
			<attribute name="ImpactFromSocialMessage" class="java.lang.String" >0</attribute>
			<attribute name="ImpactFromVisibleEmbers" class="java.lang.String" >0</attribute>
			<attribute name="ImpactFromVisibleFire" class="java.lang.String" >0</attribute>
			<attribute name="ImpactFromVisibleResponders" class="java.lang.String" >0</attribute>
			<attribute name="ImpactFromVisibleSmoke" class="java.lang.String" >0</attribute>
			<attribute name="InvacLocationPreference" class="java.lang.String" >Elphinstone,262886.1854,5890668.996</attribute>
			<attribute name="LagTimeInMinsForFinalResponse" class="java.lang.String" >1</attribute>
			<attribute name="LagTimeInMinsForInitialResponse" class="java.lang.String" >1</attribute>
			<attribute name="PrimaryFamilyType" class="java.lang.String" >LONE_PERSON</attribute>
			<attribute name="ResponseThresholdFinal" class="java.lang.String" >0</attribute>
			<attribute name="ResponseThresholdInitial" class="java.lang.String" >0</attribute>
			<attribute name="SA1_7DIGCODE" class="java.lang.String" >2102716</attribute>
			<attribute name="SA2_MAINCODE" class="java.lang.String" >202021027</attribute>
			<attribute name="WillGoHomeAfterVisitingDependents" class="java.lang.String" >False</attribute>
			<attribute name="WillGoHomeBeforeLeaving" class="java.lang.String" >False</attribute>
			<attribute name="WillStay" class="java.lang.String" >False</attribute>
		</attributes>
		<plan selected="yes">
			<activity type="home" x="252696.7593" y="5909967.482999999" end_time="15:00:00" />
			<leg mode="car">
			</leg>
			<activity type="work" x="262886.1854" y="5890668.996" />
		</plan>
	</person>

<!-- ====================================================================== -->
	<person id="3">
		<attributes>
			<attribute name="Archetype" class="java.lang.String" >Dependent.Evacuator</attribute>
			<attribute name="BDIAgentType" class="java.lang.String" >io.github.agentsoz.ees.agents.archetype.DependentEvacuator</attribute>
			<attribute name="EvacLocationPreference" class="java.lang.String" >Elphinstone,262886.1854,5890668.996</attribute>
			<attribute name="Geographical.Coordinate" class="java.lang.String" >[144.224, -36.9246]</attribute>
			<attribute name="HasDependents" class="java.lang.String" >False</attribute>
			<attribute name="ImpactFromFireDangerIndexRating" class="java.lang.String" >0</attribute>
			<attribute name="ImpactFromImmersionInSmoke" class="java.lang.String" >0</attribute>
			<attribute name="ImpactFromMessageAdvice" class="java.lang.String" >0</attribute>
			<attribute name="ImpactFromMessageEmergencyWarning" class="java.lang.String" >0</attribute>
			<attribute name="ImpactFromMessageEvacuateNow" class="java.lang.String" >1</attribute>
			<attribute name="ImpactFromMessageRespondersAttending" class="java.lang.String" >0</attribute>
			<attribute name="ImpactFromMessageWatchAndAct" class="java.lang.String" >0</attribute>
			<attribute name="ImpactFromSocialMessage" class="java.lang.String" >0</attribute>
			<attribute name="ImpactFromVisibleEmbers" class="java.lang.String" >0</attribute>
			<attribute name="ImpactFromVisibleFire" class="java.lang.String" >0</attribute>
			<attribute name="ImpactFromVisibleResponders" class="java.lang.String" >0</attribute>
			<attribute name="ImpactFromVisibleSmoke" class="java.lang.String" >0</attribute>
			<attribute name="InvacLocationPreference" class="java.lang.String" >Elphinstone,262886.1854,5890668.996</attribute>
			<attribute name="LagTimeInMinsForFinalResponse" class="java.lang.String" >1</attribute>
			<attribute name="LagTimeInMinsForInitialResponse" class="java.lang.String" >1</attribute>
			<attribute name="PrimaryFamilyType" class="java.lang.String" >LONE_PERSON</attribute>
			<attribute name="ResponseThresholdFinal" class="java.lang.String" >0</attribute>
			<attribute name="ResponseThresholdInitial" class="java.lang.String" >0</attribute>
			<attribute name="SA1_7DIGCODE" class="java.lang.String" >2102716</attribute>
			<attribute name="SA2_MAINCODE" class="java.lang.String" >202021027</attribute>
			<attribute name="WillGoHomeAfterVisitingDependents" class="java.lang.String" >False</attribute>
			<attribute name="WillGoHomeBeforeLeaving" class="java.lang.String" >False</attribute>
			<attribute name="WillStay" class="java.lang.String" >False</attribute>
		</attributes>
		<plan selected="yes">
			<activity type="home" x="252696.7593" y="5909967.482999999" end_time="15:00:00" />
			<leg mode="car">
			</leg>
			<activity type="work" x="262886.1854" y="5890668.996" />
		</plan>
	</person>

<!-- ====================================================================== -->
	<person id="4">
		<attributes>
			<attribute name="Archetype" class="java.lang.String" >Dependent.Evacuator</attribute>
			<attribute name="BDIAgentType" class="java.lang.String" >io.github.agentsoz.ees.agents.archetype.DependentEvacuator</attribute>
			<attribute name="EvacLocationPreference" class="java.lang.String" >Elphinstone,262886.1854,5890668.996</attribute>
			<attribute name="Geographical.Coordinate" class="java.lang.String" >[144.224, -36.9246]</attribute>
			<attribute name="HasDependents" class="java.lang.String" >False</attribute>
			<attribute name="ImpactFromFireDangerIndexRating" class="java.lang.String" >0</attribute>
			<attribute name="ImpactFromImmersionInSmoke" class="java.lang.String" >0</attribute>
			<attribute name="ImpactFromMessageAdvice" class="java.lang.String" >0</attribute>
			<attribute name="ImpactFromMessageEmergencyWarning" class="java.lang.String" >0</attribute>
			<attribute name="ImpactFromMessageEvacuateNow" class="java.lang.String" >1</attribute>
			<attribute name="ImpactFromMessageRespondersAttending" class="java.lang.String" >0</attribute>
			<attribute name="ImpactFromMessageWatchAndAct" class="java.lang.String" >0</attribute>
			<attribute name="ImpactFromSocialMessage" class="java.lang.String" >0</attribute>
			<attribute name="ImpactFromVisibleEmbers" class="java.lang.String" >0</attribute>
			<attribute name="ImpactFromVisibleFire" class="java.lang.String" >0</attribute>
			<attribute name="ImpactFromVisibleResponders" class="java.lang.String" >0</attribute>
			<attribute name="ImpactFromVisibleSmoke" class="java.lang.String" >0</attribute>
			<attribute name="InvacLocationPreference" class="java.lang.String" >Elphinstone,262886.1854,5890668.996</attribute>
			<attribute name="LagTimeInMinsForFinalResponse" class="java.lang.String" >1</attribute>
			<attribute name="LagTimeInMinsForInitialResponse" class="java.lang.String" >1</attribute>
			<attribute name="PrimaryFamilyType" class="java.lang.String" >LONE_PERSON</attribute>
			<attribute name="ResponseThresholdFinal" class="java.lang.String" >0</attribute>
			<attribute name="ResponseThresholdInitial" class="java.lang.String" >0</attribute>
			<attribute name="SA1_7DIGCODE" class="java.lang.String" >2102716</attribute>
			<attribute name="SA2_MAINCODE" class="java.lang.String" >202021027</attribute>
			<attribute name="WillGoHomeAfterVisitingDependents" class="java.lang.String" >False</attribute>
			<attribute name="WillGoHomeBeforeLeaving" class="java.lang.String" >False</attribute>
			<attribute name="WillStay" class="java.lang.String" >False</attribute>
		</attributes>
		<plan selected="yes">
			<activity type="home" x="252696.7593" y="5909967.482999999" end_time="15:00:00" />
			<leg mode="car">
			</leg>
			<activity type="work" x="262886.1854" y="5890668.996" />
		</plan>
	</person>

<!-- ====================================================================== -->
	<person id="5">
		<attributes>
			<attribute name="Archetype" class="java.lang.String" >Dependent.Evacuator</attribute>
			<attribute name="BDIAgentType" class="java.lang.String" >io.github.agentsoz.ees.agents.archetype.DependentEvacuator</attribute>
			<attribute name="EvacLocationPreference" class="java.lang.String" >Elphinstone,262886.1854,5890668.996</attribute>
			<attribute name="Geographical.Coordinate" class="java.lang.String" >[144.224, -36.9246]</attribute>
			<attribute name="HasDependents" class="java.lang.String" >False</attribute>
			<attribute name="ImpactFromFireDangerIndexRating" class="java.lang.String" >0</attribute>
			<attribute name="ImpactFromImmersionInSmoke" class="java.lang.String" >0</attribute>
			<attribute name="ImpactFromMessageAdvice" class="java.lang.String" >0</attribute>
			<attribute name="ImpactFromMessageEmergencyWarning" class="java.lang.String" >0</attribute>
			<attribute name="ImpactFromMessageEvacuateNow" class="java.lang.String" >1</attribute>
			<attribute name="ImpactFromMessageRespondersAttending" class="java.lang.String" >0</attribute>
			<attribute name="ImpactFromMessageWatchAndAct" class="java.lang.String" >0</attribute>
			<attribute name="ImpactFromSocialMessage" class="java.lang.String" >0</attribute>
			<attribute name="ImpactFromVisibleEmbers" class="java.lang.String" >0</attribute>
			<attribute name="ImpactFromVisibleFire" class="java.lang.String" >0</attribute>
			<attribute name="ImpactFromVisibleResponders" class="java.lang.String" >0</attribute>
			<attribute name="ImpactFromVisibleSmoke" class="java.lang.String" >0</attribute>
			<attribute name="InvacLocationPreference" class="java.lang.String" >Elphinstone,262886.1854,5890668.996</attribute>
			<attribute name="LagTimeInMinsForFinalResponse" class="java.lang.String" >1</attribute>
			<attribute name="LagTimeInMinsForInitialResponse" class="java.lang.String" >1</attribute>
			<attribute name="PrimaryFamilyType" class="java.lang.String" >LONE_PERSON</attribute>
			<attribute name="ResponseThresholdFinal" class="java.lang.String" >0</attribute>
			<attribute name="ResponseThresholdInitial" class="java.lang.String" >0</attribute>
			<attribute name="SA1_7DIGCODE" class="java.lang.String" >2102716</attribute>
			<attribute name="SA2_MAINCODE" class="java.lang.String" >202021027</attribute>
			<attribute name="WillGoHomeAfterVisitingDependents" class="java.lang.String" >False</attribute>
			<attribute name="WillGoHomeBeforeLeaving" class="java.lang.String" >False</attribute>
			<attribute name="WillStay" class="java.lang.String" >False</attribute>
		</attributes>
		<plan selected="yes">
			<activity type="home" x="252696.7593" y="5909967.482999999" end_time="15:00:00" />
			<leg mode="car">
			</leg>
			<activity type="work" x="262886.1854" y="5890668.996" />
		</plan>
	</person>

<!-- ====================================================================== -->
	<person id="6">
		<attributes>
			<attribute name="Archetype" class="java.lang.String" >Dependent.Evacuator</attribute>
			<attribute name="BDIAgentType" class="java.lang.String" >io.github.agentsoz.ees.agents.archetype.DependentEvacuator</attribute>
			<attribute name="EvacLocationPreference" class="java.lang.String" >Elphinstone,262886.1854,5890668.996</attribute>
			<attribute name="Geographical.Coordinate" class="java.lang.String" >[144.224, -36.9246]</attribute>
			<attribute name="HasDependents" class="java.lang.String" >False</attribute>
			<attribute name="ImpactFromFireDangerIndexRating" class="java.lang.String" >0</attribute>
			<attribute name="ImpactFromImmersionInSmoke" class="java.lang.String" >0</attribute>
			<attribute name="ImpactFromMessageAdvice" class="java.lang.String" >0</attribute>
			<attribute name="ImpactFromMessageEmergencyWarning" class="java.lang.String" >0</attribute>
			<attribute name="ImpactFromMessageEvacuateNow" class="java.lang.String" >1</attribute>
			<attribute name="ImpactFromMessageRespondersAttending" class="java.lang.String" >0</attribute>
			<attribute name="ImpactFromMessageWatchAndAct" class="java.lang.String" >0</attribute>
			<attribute name="ImpactFromSocialMessage" class="java.lang.String" >0</attribute>
			<attribute name="ImpactFromVisibleEmbers" class="java.lang.String" >0</attribute>
			<attribute name="ImpactFromVisibleFire" class="java.lang.String" >0</attribute>
			<attribute name="ImpactFromVisibleResponders" class="java.lang.String" >0</attribute>
			<attribute name="ImpactFromVisibleSmoke" class="java.lang.String" >0</attribute>
			<attribute name="InvacLocationPreference" class="java.lang.String" >Elphinstone,262886.1854,5890668.996</attribute>
			<attribute name="LagTimeInMinsForFinalResponse" class="java.lang.String" >1</attribute>
			<attribute name="LagTimeInMinsForInitialResponse" class="java.lang.String" >1</attribute>
			<attribute name="PrimaryFamilyType" class="java.lang.String" >LONE_PERSON</attribute>
			<attribute name="ResponseThresholdFinal" class="java.lang.String" >0</attribute>
			<attribute name="ResponseThresholdInitial" class="java.lang.String" >0</attribute>
			<attribute name="SA1_7DIGCODE" class="java.lang.String" >2102716</attribute>
			<attribute name="SA2_MAINCODE" class="java.lang.String" >202021027</attribute>
			<attribute name="WillGoHomeAfterVisitingDependents" class="java.lang.String" >False</attribute>
			<attribute name="WillGoHomeBeforeLeaving" class="java.lang.String" >False</attribute>
			<attribute name="WillStay" class="java.lang.String" >False</attribute>
		</attributes>
		<plan selected="yes">
			<activity type="home" x="252696.7593" y="5909967.482999999" end_time="15:00:00" />
			<leg mode="car">
			</leg>
			<activity type="work" x="262886.1854" y="5890668.996" />
		</plan>
	</person>

<!-- ====================================================================== -->
	<person id="7">
		<attributes>
			<attribute name="Archetype" class="java.lang.String" >Dependent.Evacuator</attribute>
			<attribute name="BDIAgentType" class="java.lang.String" >io.github.agentsoz.ees.agents.archetype.DependentEvacuator</attribute>
			<attribute name="EvacLocationPreference" class="java.lang.String" >Elphinstone,262886.1854,5890668.996</attribute>
			<attribute name="Geographical.Coordinate" class="java.lang.String" >[144.224, -36.9246]</attribute>
			<attribute name="HasDependents" class="java.lang.String" >False</attribute>
			<attribute name="ImpactFromFireDangerIndexRating" class="java.lang.String" >0</attribute>
			<attribute name="ImpactFromImmersionInSmoke" class="java.lang.String" >0</attribute>
			<attribute name="ImpactFromMessageAdvice" class="java.lang.String" >0</attribute>
			<attribute name="ImpactFromMessageEmergencyWarning" class="java.lang.String" >0</attribute>
			<attribute name="ImpactFromMessageEvacuateNow" class="java.lang.String" >1</attribute>
			<attribute name="ImpactFromMessageRespondersAttending" class="java.lang.String" >0</attribute>
			<attribute name="ImpactFromMessageWatchAndAct" class="java.lang.String" >0</attribute>
			<attribute name="ImpactFromSocialMessage" class="java.lang.String" >0</attribute>
			<attribute name="ImpactFromVisibleEmbers" class="java.lang.String" >0</attribute>
			<attribute name="ImpactFromVisibleFire" class="java.lang.String" >0</attribute>
			<attribute name="ImpactFromVisibleResponders" class="java.lang.String" >0</attribute>
			<attribute name="ImpactFromVisibleSmoke" class="java.lang.String" >0</attribute>
			<attribute name="InvacLocationPreference" class="java.lang.String" >Elphinstone,262886.1854,5890668.996</attribute>
			<attribute name="LagTimeInMinsForFinalResponse" class="java.lang.String" >1</attribute>
			<attribute name="LagTimeInMinsForInitialResponse" class="java.lang.String" >1</attribute>
			<attribute name="PrimaryFamilyType" class="java.lang.String" >LONE_PERSON</attribute>
			<attribute name="ResponseThresholdFinal" class="java.lang.String" >0</attribute>
			<attribute name="ResponseThresholdInitial" class="java.lang.String" >0</attribute>
			<attribute name="SA1_7DIGCODE" class="java.lang.String" >2102716</attribute>
			<attribute name="SA2_MAINCODE" class="java.lang.String" >202021027</attribute>
			<attribute name="WillGoHomeAfterVisitingDependents" class="java.lang.String" >False</attribute>
			<attribute name="WillGoHomeBeforeLeaving" class="java.lang.String" >False</attribute>
			<attribute name="WillStay" class="java.lang.String" >False</attribute>
		</attributes>
		<plan selected="yes">
			<activity type="home" x="252696.7593" y="5909967.482999999" end_time="15:00:00" />
			<leg mode="car">
			</leg>
			<activity type="work" x="262886.1854" y="5890668.996" />
		</plan>
	</person>

<!-- ====================================================================== -->
	<person id="8">
		<attributes>
			<attribute name="Archetype" class="java.lang.String" >Dependent.Evacuator</attribute>
			<attribute name="BDIAgentType" class="java.lang.String" >io.github.agentsoz.ees.agents.archetype.DependentEvacuator</attribute>
			<attribute name="EvacLocationPreference" class="java.lang.String" >Elphinstone,262886.1854,5890668.996</attribute>
			<attribute name="Geographical.Coordinate" class="java.lang.String" >[144.224, -36.9246]</attribute>
			<attribute name="HasDependents" class="java.lang.String" >False</attribute>
			<attribute name="ImpactFromFireDangerIndexRating" class="java.lang.String" >0</attribute>
			<attribute name="ImpactFromImmersionInSmoke" class="java.lang.String" >0</attribute>
			<attribute name="ImpactFromMessageAdvice" class="java.lang.String" >0</attribute>
			<attribute name="ImpactFromMessageEmergencyWarning" class="java.lang.String" >0</attribute>
			<attribute name="ImpactFromMessageEvacuateNow" class="java.lang.String" >1</attribute>
			<attribute name="ImpactFromMessageRespondersAttending" class="java.lang.String" >0</attribute>
			<attribute name="ImpactFromMessageWatchAndAct" class="java.lang.String" >0</attribute>
			<attribute name="ImpactFromSocialMessage" class="java.lang.String" >0</attribute>
			<attribute name="ImpactFromVisibleEmbers" class="java.lang.String" >0</attribute>
			<attribute name="ImpactFromVisibleFire" class="java.lang.String" >0</attribute>
			<attribute name="ImpactFromVisibleResponders" class="java.lang.String" >0</attribute>
			<attribute name="ImpactFromVisibleSmoke" class="java.lang.String" >0</attribute>
			<attribute name="InvacLocationPreference" class="java.lang.String" >Elphinstone,262886.1854,5890668.996</attribute>
			<attribute name="LagTimeInMinsForFinalResponse" class="java.lang.String" >1</attribute>
			<attribute name="LagTimeInMinsForInitialResponse" class="java.lang.String" >1</attribute>
			<attribute name="PrimaryFamilyType" class="java.lang.String" >LONE_PERSON</attribute>
			<attribute name="ResponseThresholdFinal" class="java.lang.String" >0</attribute>
			<attribute name="ResponseThresholdInitial" class="java.lang.String" >0</attribute>
			<attribute name="SA1_7DIGCODE" class="java.lang.String" >2102716</attribute>
			<attribute name="SA2_MAINCODE" class="java.lang.String" >202021027</attribute>
			<attribute name="WillGoHomeAfterVisitingDependents" class="java.lang.String" >False</attribute>
			<attribute name="WillGoHomeBeforeLeaving" class="java.lang.String" >False</attribute>
			<attribute name="WillStay" class="java.lang.String" >False</attribute>
		</attributes>
		<plan selected="yes">
			<activity type="home" x="252696.7593" y="5909967.482999999" end_time="15:00:00" />
			<leg mode="car">
			</leg>
			<activity type="work" x="262886.1854" y="5890668.996" />
		</plan>
	</person>

<!-- ====================================================================== -->
	<person id="9">
		<attributes>
			<attribute name="Archetype" class="java.lang.String" >Dependent.Evacuator</attribute>
			<attribute name="BDIAgentType" class="java.lang.String" >io.github.agentsoz.ees.agents.archetype.DependentEvacuator</attribute>
			<attribute name="EvacLocationPreference" class="java.lang.String" >Elphinstone,262886.1854,5890668.996</attribute>
			<attribute name="Geographical.Coordinate" class="java.lang.String" >[144.224, -36.9246]</attribute>
			<attribute name="HasDependents" class="java.lang.String" >False</attribute>
			<attribute name="ImpactFromFireDangerIndexRating" class="java.lang.String" >0</attribute>
			<attribute name="ImpactFromImmersionInSmoke" class="java.lang.String" >0</attribute>
			<attribute name="ImpactFromMessageAdvice" class="java.lang.String" >0</attribute>
			<attribute name="ImpactFromMessageEmergencyWarning" class="java.lang.String" >0</attribute>
			<attribute name="ImpactFromMessageEvacuateNow" class="java.lang.String" >1</attribute>
			<attribute name="ImpactFromMessageRespondersAttending" class="java.lang.String" >0</attribute>
			<attribute name="ImpactFromMessageWatchAndAct" class="java.lang.String" >0</attribute>
			<attribute name="ImpactFromSocialMessage" class="java.lang.String" >0</attribute>
			<attribute name="ImpactFromVisibleEmbers" class="java.lang.String" >0</attribute>
			<attribute name="ImpactFromVisibleFire" class="java.lang.String" >0</attribute>
			<attribute name="ImpactFromVisibleResponders" class="java.lang.String" >0</attribute>
			<attribute name="ImpactFromVisibleSmoke" class="java.lang.String" >0</attribute>
			<attribute name="InvacLocationPreference" class="java.lang.String" >Elphinstone,262886.1854,5890668.996</attribute>
			<attribute name="LagTimeInMinsForFinalResponse" class="java.lang.String" >1</attribute>
			<attribute name="LagTimeInMinsForInitialResponse" class="java.lang.String" >1</attribute>
			<attribute name="PrimaryFamilyType" class="java.lang.String" >LONE_PERSON</attribute>
			<attribute name="ResponseThresholdFinal" class="java.lang.String" >0</attribute>
			<attribute name="ResponseThresholdInitial" class="java.lang.String" >0</attribute>
			<attribute name="SA1_7DIGCODE" class="java.lang.String" >2102716</attribute>
			<attribute name="SA2_MAINCODE" class="java.lang.String" >202021027</attribute>
			<attribute name="WillGoHomeAfterVisitingDependents" class="java.lang.String" >False</attribute>
			<attribute name="WillGoHomeBeforeLeaving" class="java.lang.String" >False</attribute>
			<attribute name="WillStay" class="java.lang.String" >False</attribute>
		</attributes>
		<plan selected="yes">
			<activity type="home" x="252696.7593" y="5909967.482999999" end_time="15:00:00" />
			<leg mode="car">
			</leg>
			<activity type="work" x="262886.1854" y="5890668.996" />
		</plan>
	</person>

<!-- ====================================================================== -->
	<person id="10">
		<attributes>
			<attribute name="Archetype" class="java.lang.String" >Dependent.Evacuator</attribute>
			<attribute name="BDIAgentType" class="java.lang.String" >io.github.agentsoz.ees.agents.archetype.DependentEvacuator</attribute>
			<attribute name="EvacLocationPreference" class="java.lang.String" >Elphinstone,262886.1854,5890668.996</attribute>
			<attribute name="Geographical.Coordinate" class="java.lang.String" >[144.224, -36.9246]</attribute>
			<attribute name="HasDependents" class="java.lang.String" >False</attribute>